2
9
.tran 10m 3 0
6
1
A00
V
1
A01
V
1
A02
V
1
A03
V
1
A04
V
1
A05
V
9
.tran 10m 3 0
3
1
B1_C3
V
1
B1_C4
V
1
B1_C6
V
